4
From: http://ftp.aip.org/epaps/journ_chem_phys/E-JCPSA6-136-030206/Fit_Set.txt
H          0.00000000         0.00000000        -1.66001221
H          0.00000000         0.00000000         1.66001221
C          0.00000000         0.00000000        -0.59813600
C          0.00000000         0.00000000         0.59813600