6
From: http://ftp.aip.org/epaps/journ_chem_phys/E-JCPSA6-136-030206/Fit_Set.txt
C         -0.11221143         0.00000000         0.00000000
C          1.21221149         0.00000000         0.00000000
H          1.78191017         0.92093798         0.00000000
H          1.78191017        -0.92093798         0.00000000
H         -0.68191020         0.92093798         0.00000000
H         -0.68191020        -0.92093798         0.00000000