7
From: http://ftp.aip.org/epaps/journ_chem_phys/E-JCPSA6-136-030206/Fit_Set.txt
H          0.00000000         0.92567168         1.12444622
H          0.00000000        -0.92567168         1.12444622
H          0.92567154         0.00000000        -2.60245644
H         -0.92567154         0.00000000        -2.60245644
C          0.00000000         0.00000000         0.56123935
C          0.00000000         0.00000000        -0.73900526
C          0.00000000         0.00000000        -2.03924983