6
From: http://ftp.aip.org/epaps/journ_chem_phys/E-JCPSA6-136-030206/Fit_Set.txt
  C      -0.000000      0.000000     -1.179881
  C       0.000000      0.000000      0.275354
  N      -0.000000      0.000000      1.425248
  H      -0.000000      1.022784     -1.556227
  H       0.885757     -0.511392     -1.556227
  H      -0.885757     -0.511392     -1.556227